
     RDKit          3D

 37 39  0  0  0  0  0  0  0  0999 V2000
    0.7668   -5.5714    0.8064 O   0  0  0  0  0  0  0  0  0  0  0  0
   -0.0131   -5.0166    0.0372 C   0  0  0  0  0  0  0  0  0  0  0  0
   -0.6449   -5.7123   -0.9724 N   0  0  0  0  0  0  0  0  0  0  0  0
   -1.5417   -5.2164   -1.9079 C   0  0  0  0  0  0  0  0  0  0  0  0
   -2.0390   -5.9327   -2.7706 O   0  0  0  0  0  0  0  0  0  0  0  0
   -1.8010   -3.7988   -1.7436 C   0  0  0  0  0  0  0  0  0  0  0  0
   -2.6141   -2.9613   -2.4644 N   0  0  0  0  0  0  0  0  0  0  0  0
   -2.4854   -1.7829   -1.8862 C   0  0  0  0  0  0  0  0  0  0  0  0
   -1.6000   -1.8166   -0.8368 N   0  0  0  0  0  0  0  0  0  0  0  0
   -1.1748   -0.6977   -0.0121 C   0  0  0  0  0  0  0  0  0  0  0  0
   -2.0890    0.4104   -0.1896 O   0  0  0  0  0  0  0  0  0  0  0  0
   -1.3449    1.5527   -0.6532 C   0  0  0  0  0  0  0  0  0  0  0  0
   -1.1949    2.5726    0.4766 C   0  0  0  0  0  0  0  0  0  0  0  0
   -0.5728    3.7487   -0.0197 O   0  0  0  0  0  0  0  0  0  0  0  0
    0.0088    4.7569    1.0804 P   0  0  0  0  0  5  0  0  0  0  0  0
   -0.9254    5.2034    2.1465 O   0  0  0  0  0  0  0  0  0  0  0  0
    0.5985    5.9470    0.1989 O   0  0  0  0  0  0  0  0  0  0  0  0
    1.3348    4.0472    1.6064 O   0  0  0  0  0  0  0  0  0  0  0  0
   -0.0353    1.0068   -1.2275 C   0  0  0  0  0  0  0  0  0  0  0  0
    1.0857    1.8780   -1.2072 O   0  0  0  0  0  0  0  0  0  0  0  0
    0.2322   -0.2111   -0.3620 C   0  0  0  0  0  0  0  0  0  0  0  0
    0.9377    0.1756    0.8271 O   0  0  0  0  0  0  0  0  0  0  0  0
   -1.1714   -3.1094   -0.7376 C   0  0  0  0  0  0  0  0  0  0  0  0
   -0.2894   -3.6696    0.1486 N   0  0  0  0  0  0  0  0  0  0  0  0
   -0.4323   -6.6947   -1.0429 H   0  0  0  0  0  0  0  0  0  0  0  0
   -3.0061   -0.8817   -2.1876 H   0  0  0  0  0  0  0  0  0  0  0  0
   -1.2549   -1.0229    1.0318 H   0  0  0  0  0  0  0  0  0  0  0  0
   -1.9158    2.0251   -1.4619 H   0  0  0  0  0  0  0  0  0  0  0  0
   -0.6249    2.1579    1.3144 H   0  0  0  0  0  0  0  0  0  0  0  0
   -2.1836    2.8371    0.8688 H   0  0  0  0  0  0  0  0  0  0  0  0
   -0.0907    6.6008   -0.0195 H   0  0  0  0  0  0  0  0  0  0  0  0
    1.7529    4.5650    2.3183 H   0  0  0  0  0  0  0  0  0  0  0  0
   -0.2077    0.6827   -2.2611 H   0  0  0  0  0  0  0  0  0  0  0  0
    0.7645    2.7917   -1.3415 H   0  0  0  0  0  0  0  0  0  0  0  0
    0.8579   -0.9526   -0.8684 H   0  0  0  0  0  0  0  0  0  0  0  0
    1.5993    0.8383    0.5290 H   0  0  0  0  0  0  0  0  0  0  0  0
    0.1713   -3.1588    0.8925 H   0  0  0  0  0  0  0  0  0  0  0  0
  1  2  2  0
  2  3  1  0
  3  4  1  0
  4  5  2  0
  4  6  1  0
  6  7  1  0
  7  8  2  0
  8  9  1  0
  9 10  1  0
 10 11  1  0
 11 12  1  0
 12 13  1  0
 13 14  1  0
 14 15  1  0
 15 16  2  0
 15 17  1  0
 15 18  1  0
 12 19  1  0
 19 20  1  0
 19 21  1  0
 21 22  1  0
  9 23  1  0
 23 24  1  0
 24  2  1  0
 23  6  2  0
 21 10  1  0
  3 25  1  0
  8 26  1  0
 10 27  1  0
 12 28  1  0
 13 29  1  0
 13 30  1  0
 17 31  1  0
 18 32  1  0
 19 33  1  0
 20 34  1  0
 21 35  1  0
 22 36  1  0
 24 37  1  0
M  END

