
     RDKit          3D

 21 22  0  0  0  0  0  0  0  0999 V2000
    1.1041    0.0536    3.6599 C   0  0  0  0  0  0  0  0  0  0  0  0
    0.4354   -0.4259    2.4678 N   0  0  0  0  0  0  0  0  0  0  0  0
   -0.9664   -0.4950    2.5204 C   0  0  0  0  0  0  0  0  0  0  0  0
   -1.6183   -0.1716    3.5142 O   0  0  0  0  0  0  0  0  0  0  0  0
   -1.6139   -0.9476    1.3978 N   0  0  0  0  0  0  0  0  0  0  0  0
   -0.9226   -1.3106    0.2895 C   0  0  0  0  0  0  0  0  0  0  0  0
   -1.4525   -1.7689   -0.8688 N   0  0  0  0  0  0  0  0  0  0  0  0
   -0.4001   -1.9840   -1.6361 C   0  0  0  0  0  0  0  0  0  0  0  0
    0.7714   -1.6740   -0.9926 N   0  0  0  0  0  0  0  0  0  0  0  0
    2.1002   -1.7898   -1.5368 C   0  0  0  0  0  0  0  0  0  0  0  0
    0.4360   -1.2371    0.2560 C   0  0  0  0  0  0  0  0  0  0  0  0
    1.2161   -0.7832    1.3594 C   0  0  0  0  0  0  0  0  0  0  0  0
    2.4412   -0.7190    1.3236 O   0  0  0  0  0  0  0  0  0  0  0  0
    2.1907    0.0812    3.5482 H   0  0  0  0  0  0  0  0  0  0  0  0
    0.8481   -0.6020    4.4986 H   0  0  0  0  0  0  0  0  0  0  0  0
    0.7431    1.0618    3.8883 H   0  0  0  0  0  0  0  0  0  0  0  0
   -2.6209   -1.0135    1.3914 H   0  0  0  0  0  0  0  0  0  0  0  0
   -0.4302   -2.3584   -2.6519 H   0  0  0  0  0  0  0  0  0  0  0  0
    2.0433   -2.1688   -2.5604 H   0  0  0  0  0  0  0  0  0  0  0  0
    2.5642   -0.8003   -1.5354 H   0  0  0  0  0  0  0  0  0  0  0  0
    2.6706   -2.4861   -0.9170 H   0  0  0  0  0  0  0  0  0  0  0  0
  1  2  1  0
  2  3  1  0
  3  4  2  0
  3  5  1  0
  5  6  1  0
  6  7  1  0
  7  8  2  0
  8  9  1  0
  9 10  1  0
  9 11  1  0
 11 12  1  0
 12 13  2  0
 12  2  1  0
 11  6  2  0
  1 14  1  0
  1 15  1  0
  1 16  1  0
  5 17  1  0
  8 18  1  0
 10 19  1  0
 10 20  1  0
 10 21  1  0
M  END

