
     RDKit          3D

140139  0  0  0  0  0  0  0  0999 V2000
   -7.0680    0.3880   -6.9682 C   0  0  0  0  0  0  0  0  0  0  0  0
   -7.2332    1.6399   -6.1214 C   0  0  0  0  0  0  0  0  0  0  0  0
   -8.6811    1.9802   -5.9256 C   0  0  0  0  0  0  0  0  0  0  0  0
   -9.4646    1.8318   -4.8432 C   0  0  0  0  0  0  0  0  0  0  0  0
   -9.2321    1.2501   -3.4718 C   0  0  0  0  0  0  0  0  0  0  0  0
   -8.0476    0.3436   -3.3188 C   0  0  0  0  0  0  0  0  0  0  0  0
   -6.9841    0.5107   -2.5120 C   0  0  0  0  0  0  0  0  0  0  0  0
   -6.6946    1.6656   -1.5952 C   0  0  0  0  0  0  0  0  0  0  0  0
   -6.7301    1.2278   -0.1568 C   0  0  0  0  0  0  0  0  0  0  0  0
   -5.7607    1.3443    0.7672 C   0  0  0  0  0  0  0  0  0  0  0  0
   -4.4038    1.9691    0.6093 C   0  0  0  0  0  0  0  0  0  0  0  0
   -3.3140    0.9417    0.7215 C   0  0  0  0  0  0  0  0  0  0  0  0
   -2.4864    0.5112   -0.2462 C   0  0  0  0  0  0  0  0  0  0  0  0
   -2.4729    0.9281   -1.6917 C   0  0  0  0  0  0  0  0  0  0  0  0
   -2.4867   -0.2721   -2.5958 C   0  0  0  0  0  0  0  0  0  0  0  0
   -1.5258   -0.6655   -3.4505 C   0  0  0  0  0  0  0  0  0  0  0  0
   -0.1890   -0.0239   -3.6872 C   0  0  0  0  0  0  0  0  0  0  0  0
   -0.1234    0.6152   -5.0427 C   0  0  0  0  0  0  0  0  0  0  0  0
   -0.0827    1.9264   -5.3343 C   0  0  0  0  0  0  0  0  0  0  0  0
   -0.1142    3.0759   -4.3590 C   0  0  0  0  0  0  0  0  0  0  0  0
    0.9071    4.1637   -4.6819 C   0  0  0  0  0  0  0  0  0  0  0  0
    2.3306    3.9196   -4.2343 C   0  0  0  0  0  0  0  0  0  0  0  0
    3.1898    4.7946   -4.2935 O   0  0  0  0  0  0  0  0  0  0  0  0
    2.5600    2.6583   -3.7868 O   0  0  0  0  0  0  0  0  0  0  0  0
    3.9115    2.4326   -3.3452 C   0  0  0  0  0  0  0  0  0  0  0  0
    4.1314    0.9521   -3.0015 C   0  0  2  0  0  0  0  0  0  0  0  0
    3.7936    0.0536   -4.1931 C   0  0  0  0  0  0  0  0  0  0  0  0
    4.2715   -1.2635   -3.9389 O   0  0  0  0  0  0  0  0  0  0  0  0
    3.7010   -2.4230   -4.8880 P   0  0  0  0  0  5  0  0  0  0  0  0
    3.5997   -2.0652   -6.3345 O   0  0  0  0  0  0  0  0  0  0  0  0
    4.7314   -3.6271   -4.6602 O   0  0  0  0  0  0  0  0  0  0  0  0
    2.3407   -2.9429   -4.2150 O   0  0  0  0  0  0  0  0  0  0  0  0
    2.3913   -3.4403   -2.8836 C   0  0  0  0  0  0  0  0  0  0  0  0
    0.9760   -3.7756   -2.4042 C   0  0  2  0  0  0  0  0  0  0  0  0
    0.9315   -3.9801   -0.9378 N   0  0  0  0  0  0  0  0  0  0  0  0
    0.4964   -5.0335   -3.1324 C   0  0  0  0  0  0  0  0  0  0  0  0
    0.8578   -6.1859   -2.9517 O   0  0  0  0  0  0  0  0  0  0  0  0
   -0.4571   -4.7612   -4.0537 O   0  0  0  0  0  0  0  0  0  0  0  0
    3.2823    0.5543   -1.8955 O   0  0  0  0  0  0  0  0  0  0  0  0
    3.7240    0.9270   -0.6627 C   0  0  0  0  0  0  0  0  0  0  0  0
    4.7676    1.5265   -0.4429 O   0  0  0  0  0  0  0  0  0  0  0  0
    2.7729    0.4771    0.4212 C   0  0  0  0  0  0  0  0  0  0  0  0
    1.3258    0.9119    0.2005 C   0  0  0  0  0  0  0  0  0  0  0  0
    1.1263    2.4152   -0.0202 C   0  0  0  0  0  0  0  0  0  0  0  0
    1.5802    3.3240    1.1267 C   0  0  0  0  0  0  0  0  0  0  0  0
    0.7295    3.1694    2.3915 C   0  0  0  0  0  0  0  0  0  0  0  0
    1.0531    4.2433    3.3933 C   0  0  0  0  0  0  0  0  0  0  0  0
    1.5085    4.1781    4.6555 C   0  0  0  0  0  0  0  0  0  0  0  0
    1.8994    3.0617    5.5870 C   0  0  0  0  0  0  0  0  0  0  0  0
    1.8664    1.6690    5.0400 C   0  0  0  0  0  0  0  0  0  0  0  0
    2.9121    0.8609    4.7929 C   0  0  0  0  0  0  0  0  0  0  0  0
    4.3729    1.1667    4.9686 C   0  0  0  0  0  0  0  0  0  0  0  0
    5.1681    0.7296    3.7713 C   0  0  0  0  0  0  0  0  0  0  0  0
    6.1216   -0.2161    3.7099 C   0  0  0  0  0  0  0  0  0  0  0  0
    6.6449   -1.0723    4.8283 C   0  0  0  0  0  0  0  0  0  0  0  0
    6.5172   -2.5374    4.5139 C   0  0  0  0  0  0  0  0  0  0  0  0
    5.6614   -3.4178    5.0587 C   0  0  0  0  0  0  0  0  0  0  0  0
    4.5782   -3.1252    6.0586 C   0  0  0  0  0  0  0  0  0  0  0  0
    3.2677   -3.8687    5.7649 C   0  0  0  0  0  0  0  0  0  0  0  0
    2.6201   -3.4600    4.4375 C   0  0  0  0  0  0  0  0  0  0  0  0
    1.2948   -4.1750    4.1578 C   0  0  0  0  0  0  0  0  0  0  0  0
    0.1909   -3.8120    5.1413 C   0  0  0  0  0  0  0  0  0  0  0  0
   -7.5421   -0.4807   -6.4964 H   0  0  0  0  0  0  0  0  0  0  0  0
   -7.5163    0.5205   -7.9603 H   0  0  0  0  0  0  0  0  0  0  0  0
   -6.0068    0.1598   -7.1068 H   0  0  0  0  0  0  0  0  0  0  0  0
   -6.7493    2.4838   -6.6301 H   0  0  0  0  0  0  0  0  0  0  0  0
   -6.6998    1.5253   -5.1759 H   0  0  0  0  0  0  0  0  0  0  0  0
   -9.1444    2.4384   -6.8011 H   0  0  0  0  0  0  0  0  0  0  0  0
  -10.4854    2.2089   -4.9510 H   0  0  0  0  0  0  0  0  0  0  0  0
  -10.1186    0.6486   -3.2207 H   0  0  0  0  0  0  0  0  0  0  0  0
   -9.2200    2.0723   -2.7504 H   0  0  0  0  0  0  0  0  0  0  0  0
   -8.0844   -0.5633   -3.9224 H   0  0  0  0  0  0  0  0  0  0  0  0
   -6.2184   -0.2668   -2.5218 H   0  0  0  0  0  0  0  0  0  0  0  0
   -7.4115    2.4809   -1.7242 H   0  0  0  0  0  0  0  0  0  0  0  0
   -5.7206    2.0759   -1.8757 H   0  0  0  0  0  0  0  0  0  0  0  0
   -7.6653    0.7647    0.1552 H   0  0  0  0  0  0  0  0  0  0  0  0
   -5.9750    0.9578    1.7632 H   0  0  0  0  0  0  0  0  0  0  0  0
   -4.2695    2.7004    1.4171 H   0  0  0  0  0  0  0  0  0  0  0  0
   -4.3238    2.5497   -0.3124 H   0  0  0  0  0  0  0  0  0  0  0  0
   -3.1818    0.5201    1.7193 H   0  0  0  0  0  0  0  0  0  0  0  0
   -1.7315   -0.2217    0.0309 H   0  0  0  0  0  0  0  0  0  0  0  0
   -1.5928    1.5531   -1.8598 H   0  0  0  0  0  0  0  0  0  0  0  0
   -3.3371    1.5450   -1.9493 H   0  0  0  0  0  0  0  0  0  0  0  0
   -3.4000   -0.8669   -2.5561 H   0  0  0  0  0  0  0  0  0  0  0  0
   -1.7174   -1.5596   -4.0458 H   0  0  0  0  0  0  0  0  0  0  0  0
    0.5807   -0.8022   -3.6373 H   0  0  0  0  0  0  0  0  0  0  0  0
    0.0717    0.6784   -2.8933 H   0  0  0  0  0  0  0  0  0  0  0  0
   -0.1121   -0.0849   -5.8798 H   0  0  0  0  0  0  0  0  0  0  0  0
   -0.0653    2.2022   -6.3876 H   0  0  0  0  0  0  0  0  0  0  0  0
   -1.1150    3.5230   -4.4306 H   0  0  0  0  0  0  0  0  0  0  0  0
    0.0093    2.7503   -3.3240 H   0  0  0  0  0  0  0  0  0  0  0  0
    0.9285    4.3685   -5.7589 H   0  0  0  0  0  0  0  0  0  0  0  0
    0.5870    5.0809   -4.1689 H   0  0  0  0  0  0  0  0  0  0  0  0
    4.6082    2.7238   -4.1402 H   0  0  0  0  0  0  0  0  0  0  0  0
    4.0874    3.0597   -2.4644 H   0  0  0  0  0  0  0  0  0  0  0  0
    5.1799    0.7824   -2.7235 H   0  0  0  0  0  0  0  0  0  0  0  0
    2.7139    0.0124   -4.3578 H   0  0  0  0  0  0  0  0  0  0  0  0
    4.2844    0.4199   -5.1016 H   0  0  0  0  0  0  0  0  0  0  0  0
    4.9566   -4.0381   -5.5148 H   0  0  0  0  0  0  0  0  0  0  0  0
    2.8282   -2.6652   -2.2460 H   0  0  0  0  0  0  0  0  0  0  0  0
    3.0372   -4.3236   -2.8501 H   0  0  0  0  0  0  0  0  0  0  0  0
    0.2852   -2.9613   -2.6504 H   0  0  0  0  0  0  0  0  0  0  0  0
    1.0751   -3.0885   -0.4677 H   0  0  0  0  0  0  0  0  0  0  0  0
   -0.0014   -4.3008   -0.6754 H   0  0  0  0  0  0  0  0  0  0  0  0
   -0.6923   -5.6428   -4.4165 H   0  0  0  0  0  0  0  0  0  0  0  0
    3.1324    0.8714    1.3753 H   0  0  0  0  0  0  0  0  0  0  0  0
    2.8339   -0.6153    0.4867 H   0  0  0  0  0  0  0  0  0  0  0  0
    0.7239    0.5783    1.0539 H   0  0  0  0  0  0  0  0  0  0  0  0
    0.9238    0.3845   -0.6729 H   0  0  0  0  0  0  0  0  0  0  0  0
    0.0626    2.6020   -0.2168 H   0  0  0  0  0  0  0  0  0  0  0  0
    1.6545    2.7196   -0.9310 H   0  0  0  0  0  0  0  0  0  0  0  0
    1.5151    4.3611    0.7724 H   0  0  0  0  0  0  0  0  0  0  0  0
    2.6355    3.1502    1.3606 H   0  0  0  0  0  0  0  0  0  0  0  0
   -0.3324    3.2683    2.1313 H   0  0  0  0  0  0  0  0  0  0  0  0
    0.8511    2.1651    2.7943 H   0  0  0  0  0  0  0  0  0  0  0  0
    0.8624    5.2493    3.0124 H   0  0  0  0  0  0  0  0  0  0  0  0
    1.6385    5.1487    5.1429 H   0  0  0  0  0  0  0  0  0  0  0  0
    1.2217    3.0933    6.4502 H   0  0  0  0  0  0  0  0  0  0  0  0
    2.8911    3.2955    5.9908 H   0  0  0  0  0  0  0  0  0  0  0  0
    0.8683    1.2656    4.8763 H   0  0  0  0  0  0  0  0  0  0  0  0
    2.6918   -0.1439    4.4375 H   0  0  0  0  0  0  0  0  0  0  0  0
    4.5500    2.2382    5.1065 H   0  0  0  0  0  0  0  0  0  0  0  0
    4.7121    0.6762    5.8847 H   0  0  0  0  0  0  0  0  0  0  0  0
    4.9440    1.2725    2.8532 H   0  0  0  0  0  0  0  0  0  0  0  0
    6.5987   -0.3763    2.7430 H   0  0  0  0  0  0  0  0  0  0  0  0
    6.1820   -0.8351    5.7875 H   0  0  0  0  0  0  0  0  0  0  0  0
    7.7117   -0.8474    4.9590 H   0  0  0  0  0  0  0  0  0  0  0  0
    7.2340   -2.9160    3.7869 H   0  0  0  0  0  0  0  0  0  0  0  0
    5.7480   -4.4595    4.7477 H   0  0  0  0  0  0  0  0  0  0  0  0
    4.3648   -2.0525    6.1186 H   0  0  0  0  0  0  0  0  0  0  0  0
    4.9356   -3.4360    7.0476 H   0  0  0  0  0  0  0  0  0  0  0  0
    3.4464   -4.9519    5.7677 H   0  0  0  0  0  0  0  0  0  0  0  0
    2.5762   -3.6620    6.5911 H   0  0  0  0  0  0  0  0  0  0  0  0
    2.4519   -2.3790    4.4255 H   0  0  0  0  0  0  0  0  0  0  0  0
    3.3041   -3.6823    3.6101 H   0  0  0  0  0  0  0  0  0  0  0  0
    0.9639   -3.9050    3.1479 H   0  0  0  0  0  0  0  0  0  0  0  0
    1.4460   -5.2617    4.1625 H   0  0  0  0  0  0  0  0  0  0  0  0
    0.3976   -4.2151    6.1366 H   0  0  0  0  0  0  0  0  0  0  0  0
    0.0740   -2.7282    5.2218 H   0  0  0  0  0  0  0  0  0  0  0  0
   -0.7624   -4.2352    4.8088 H   0  0  0  0  0  0  0  0  0  0  0  0
  1  2  1  0
  2  3  1  0
  3  4  2  0
  4  5  1  0
  5  6  1  0
  6  7  2  0
  7  8  1  0
  8  9  1  0
  9 10  2  0
 10 11  1  0
 11 12  1  0
 12 13  2  0
 13 14  1  0
 14 15  1  0
 15 16  2  0
 16 17  1  0
 17 18  1  0
 18 19  2  0
 19 20  1  0
 20 21  1  0
 21 22  1  0
 22 23  2  0
 22 24  1  0
 24 25  1  0
 25 26  1  0
 26 27  1  0
 27 28  1  0
 28 29  1  0
 29 30  2  0
 29 31  1  0
 29 32  1  0
 32 33  1  0
 33 34  1  0
 34 35  1  0
 34 36  1  0
 36 37  2  0
 36 38  1  0
 26 39  1  0
 39 40  1  0
 40 41  2  0
 40 42  1  0
 42 43  1  0
 43 44  1  0
 44 45  1  0
 45 46  1  0
 46 47  1  0
 47 48  2  0
 48 49  1  0
 49 50  1  0
 50 51  2  0
 51 52  1  0
 52 53  1  0
 53 54  2  0
 54 55  1  0
 55 56  1  0
 56 57  2  0
 57 58  1  0
 58 59  1  0
 59 60  1  0
 60 61  1  0
 61 62  1  0
  1 63  1  0
  1 64  1  0
  1 65  1  0
  2 66  1  0
  2 67  1  0
  3 68  1  0
  4 69  1  0
  5 70  1  0
  5 71  1  0
  6 72  1  0
  7 73  1  0
  8 74  1  0
  8 75  1  0
  9 76  1  0
 10 77  1  0
 11 78  1  0
 11 79  1  0
 12 80  1  0
 13 81  1  0
 14 82  1  0
 14 83  1  0
 15 84  1  0
 16 85  1  0
 17 86  1  0
 17 87  1  0
 18 88  1  0
 19 89  1  0
 20 90  1  0
 20 91  1  0
 21 92  1  0
 21 93  1  0
 25 94  1  0
 25 95  1  0
 26 96  1  1
 27 97  1  0
 27 98  1  0
 31 99  1  0
 33100  1  0
 33101  1  0
 34102  1  1
 35103  1  0
 35104  1  0
 38105  1  0
 42106  1  0
 42107  1  0
 43108  1  0
 43109  1  0
 44110  1  0
 44111  1  0
 45112  1  0
 45113  1  0
 46114  1  0
 46115  1  0
 47116  1  0
 48117  1  0
 49118  1  0
 49119  1  0
 50120  1  0
 51121  1  0
 52122  1  0
 52123  1  0
 53124  1  0
 54125  1  0
 55126  1  0
 55127  1  0
 56128  1  0
 57129  1  0
 58130  1  0
 58131  1  0
 59132  1  0
 59133  1  0
 60134  1  0
 60135  1  0
 61136  1  0
 61137  1  0
 62138  1  0
 62139  1  0
 62140  1  0
M  END

